[General]
seed-set = 1
sim-time-limit = 13s
**.num_measure = 7000
**.distant_measure_count = 200
**.emission_success_probability = 1
**.buffers = 200
**.cmdenv-log-level = off
