[General]
seed-set = 1
sim-time-limit = 100s
**.num_measure = 7000
**.distant_measure_count = 200
**.emission_success_probability = 1
**.cmdenv-log-level = off
**.Speed_of_light_in_fiber = 205336.986301 km



